REMARK  Name = PRD_002214
REMARK  24 active torsions:
REMARK  status: ('A' for Active; 'I' for Inactive)
REMARK    1  A    between atoms: C_1  and  C_2
REMARK    2  A    between atoms: C_2  and  C_3
REMARK    3  A    between atoms: C_2  and  C_4
REMARK    4  A    between atoms: C_4  and  C_5
REMARK    5  A    between atoms: C_5  and  N_6
REMARK    6  A    between atoms: C_5  and  C_27
REMARK    7  A    between atoms: C_7  and  C_9
REMARK    8  A    between atoms: C_9  and  N_10
REMARK    9  A    between atoms: C_9  and  C_24
REMARK   10  A    between atoms: C_11  and  C_13
REMARK   11  A    between atoms: C_13  and  C_14
REMARK   12  A    between atoms: C_13  and  N_15
REMARK   13  A    between atoms: C_16  and  C_18
REMARK   14  A    between atoms: C_20  and  C_21
REMARK   15  A    between atoms: C_24  and  C_25
REMARK   16  A    between atoms: C_24  and  C_26
REMARK   17  A    between atoms: N_29  and  C_30
REMARK   18  A    between atoms: C_30  and  C_31
REMARK   19  A    between atoms: C_30  and  C_38
REMARK   20  A    between atoms: C_31  and  C_32
REMARK   21  A    between atoms: C_39  and  C_40
REMARK   22  A    between atoms: C_40  and  O_42
REMARK   23  A    between atoms: O_42  and  C_43
REMARK   24  A    between atoms: C_43  and  C_44
REMARK                            x       y       z     vdW  Elec       q    Type
REMARK                         _______ _______ _______ _____ _____    ______ ____
ROOT
ATOM      1  C   UNL     1       3.321  -9.892  -0.272  0.00  0.00    +0.159 C 
ENDROOT
BRANCH   1   2
ATOM      2  C   UNL     1       1.813  -9.627  -0.060  0.00  0.00    +0.234 C 
ATOM      3  N   UNL     1       1.211  -8.528  -0.613  0.00  0.00    -0.307 N 
ATOM      4  H   UNL     1       0.301  -8.413  -0.205  0.00  0.00    +0.149 HD
ATOM      5  O   UNL     1       1.101 -10.392   0.592  0.00  0.00    -0.274 OA
BRANCH   3   6
ATOM      6  C   UNL     1       1.372  -8.009  -1.965  0.00  0.00    +0.097 C 
BRANCH   6   7
ATOM      7  C   UNL     1       1.501  -6.513  -1.885  0.00  0.00    +0.002 C 
ATOM      8  C   UNL     1       2.555  -5.729  -2.193  0.00  0.00    +0.089 C 
BRANCH   8   9
ATOM      9  C   UNL     1       3.929  -6.085  -2.639  0.00  0.00    +0.332 C 
ATOM     10  O   UNL     1       4.881  -5.353  -2.414  0.00  0.00    -0.246 OA
BRANCH   9  11
ATOM     11  O   UNL     1       3.982  -7.316  -3.186  0.00  0.00    -0.457 OA
BRANCH  11  12
ATOM     12  C   UNL     1       5.278  -7.934  -3.186  0.00  0.00    +0.268 C 
BRANCH  12  13
ATOM     13  C   UNL     1       5.945  -7.806  -4.515  0.00  0.00    -0.010 A 
ATOM     14  C   UNL     1       5.228  -8.061  -5.689  0.00  0.00    +0.007 A 
ATOM     15  C   UNL     1       5.836  -7.887  -6.927  0.00  0.00    +0.000 A 
ATOM     16  C   UNL     1       7.169  -7.488  -6.996  0.00  0.00    +0.000 A 
ATOM     17  C   UNL     1       7.905  -7.290  -5.828  0.00  0.00    +0.000 A 
ATOM     18  C   UNL     1       7.297  -7.455  -4.588  0.00  0.00    +0.007 A 
ENDBRANCH  12  13
ENDBRANCH  11  12
ENDBRANCH   9  11
ENDBRANCH   8   9
ENDBRANCH   6   7
BRANCH   6  19
ATOM     19  C   UNL     1       0.254  -8.480  -2.910  0.00  0.00    +0.039 C 
BRANCH  19  20
ATOM     20  C   UNL     1      -1.190  -7.971  -2.707  0.00  0.00    +0.078 C 
ATOM     21  C   UNL     1      -2.035  -8.686  -3.754  0.00  0.00    +0.216 C 
ATOM     22  O   UNL     1      -2.127  -8.397  -4.928  0.00  0.00    -0.276 OA
ATOM     23  N   UNL     1      -2.611  -9.790  -3.145  0.00  0.00    -0.315 N 
ATOM     24  H   UNL     1      -3.161 -10.456  -3.673  0.00  0.00    +0.149 HD
ATOM     25  C   UNL     1      -2.321  -9.853  -1.745  0.00  0.00    +0.105 C 
ATOM     26  C   UNL     1      -1.950  -8.414  -1.446  0.00  0.00    +0.031 C 
ENDBRANCH  19  20
ENDBRANCH   6  19
ENDBRANCH   3   6
ENDBRANCH   1   2
BRANCH   1  27
ATOM     27  N   UNL     1       3.456 -10.592  -1.555  0.00  0.00    -0.302 N 
ATOM     28  H   UNL     1       2.652 -10.555  -2.173  0.00  0.00    +0.150 HD
ATOM     29  C   UNL     1       4.385 -11.410  -2.102  0.00  0.00    +0.234 C 
ATOM     30  O   UNL     1       4.095 -11.851  -3.223  0.00  0.00    -0.274 OA
BRANCH  29  31
ATOM     31  C   UNL     1       5.690 -11.885  -1.415  0.00  0.00    +0.161 C 
BRANCH  31  32
ATOM     32  N   UNL     1       6.354 -10.877  -0.565  0.00  0.00    -0.302 N 
ATOM     33  H   UNL     1       6.771 -10.145  -1.132  0.00  0.00    +0.150 HD
ATOM     34  C   UNL     1       6.607 -10.564   0.723  0.00  0.00    +0.234 C 
ATOM     35  O   UNL     1       7.285  -9.522   0.815  0.00  0.00    -0.274 OA
BRANCH  34  36
ATOM     36  C   UNL     1       6.298 -11.337   2.054  0.00  0.00    +0.156 C 
ATOM     37  C   UNL     1       7.624 -11.864   2.603  0.00  0.00    +0.038 C 
BRANCH  36  38
ATOM     38  N   UNL     1       5.281 -12.382   2.157  0.00  0.00    -0.299 N 
ATOM     39  H   UNL     1       5.509 -13.279   1.758  0.00  0.00    +0.150 HD
ATOM     40  C   UNL     1       3.975 -12.346   2.604  0.00  0.00    +0.266 C 
ATOM     41  O   UNL     1       3.193 -13.180   2.147  0.00  0.00    -0.268 OA
BRANCH  40  42
ATOM     42  C   UNL     1       3.547 -11.347   3.582  0.00  0.00    +0.168 A 
ATOM     43  N   UNL     1       4.337 -10.958   4.597  0.00  0.00    -0.073 NA
ATOM     44  O   UNL     1       3.658  -9.943   5.244  0.00  0.00    -0.359 OA
ATOM     45  C   UNL     1       2.467  -9.724   4.628  0.00  0.00    +0.135 A 
ATOM     46  C   UNL     1       1.697  -8.554   5.091  0.00  0.00    +0.089 C 
ATOM     47  C   UNL     1       2.305 -10.651   3.628  0.00  0.00    +0.080 A 
ENDBRANCH  40  42
ENDBRANCH  36  38
ENDBRANCH  34  36
ENDBRANCH  31  32
BRANCH  31  48
ATOM     48  C   UNL     1       5.617 -13.291  -0.821  0.00  0.00    +0.012 C 
ATOM     49  C   UNL     1       7.022 -13.793  -0.456  0.00  0.00    +0.009 C 
ATOM     50  C   UNL     1       4.928 -14.362  -1.667  0.00  0.00    +0.009 C 
ENDBRANCH  31  48
ENDBRANCH  29  31
ENDBRANCH   1  27
BRANCH   1  51
ATOM     51  C   UNL     1       4.111  -8.569  -0.177  0.00  0.00    +0.034 C 
BRANCH  51  53
ATOM     52  C   UNL     1       4.570  -8.320   2.308  0.00  0.00    +0.007 C 
ATOM     53  C   UNL     1       3.957  -7.690   1.082  0.00  0.00    -0.015 C 
ATOM     54  C   UNL     1       4.639  -6.336   0.880  0.00  0.00    +0.007 C 
ENDBRANCH  51  53
ENDBRANCH   1  51
TORSDOF 18
