REMARK  Name = raw_data/PRD_002214.pdb
REMARK  24 active torsions:
REMARK  status: ('A' for Active; 'I' for Inactive)
REMARK    1  A    between atoms: _2  and  _3
REMARK    2  A    between atoms: _6  and  _7
REMARK    3  A    between atoms: _9  and  _10
REMARK    4  A    between atoms: _10  and  _11
REMARK    5  A    between atoms: _10  and  _13
REMARK    6  A    between atoms: _14  and  _15
REMARK    7  A    between atoms: _15  and  C10_16
REMARK    8  A    between atoms: _15  and  C11_18
REMARK    9  A    between atoms: C11_18  and  C12_19
REMARK   10  A    between atoms: C11_18  and  C13_20
REMARK   11  A    between atoms: _21  and  C14_22
REMARK   12  A    between atoms: C14_22  and  C15_23
REMARK   13  A    between atoms: C14_22  and  C16_25
REMARK   14  A    between atoms: C16_25  and  C17_26
REMARK   15  A    between atoms: C17_26  and  C18_27
REMARK   16  A    between atoms: C17_26  and  C19_28
REMARK   17  A    between atoms: C20_29  and  C21_30
REMARK   18  A    between atoms: C20_29  and  C24_33
REMARK   19  A    between atoms: C20_29  and  _40
REMARK   20  A    between atoms: C22_31  and  C23_32
REMARK   21  A    between atoms: C23_32  and  _43
REMARK   22  A    between atoms: C24_33  and  C25_34
REMARK   23  A    between atoms: C29_42  and  _43
REMARK   24  A    between atoms: C29_42  and  C35_49
REMARK                            x       y       z     vdW  Elec       q    Type
REMARK                         _______ _______ _______ _____ _____    ______ ____
ROOT
ATOM     32  C   UNL     1      -0.158  -0.326  -0.892  0.00  0.00    +0.100 C 
ATOM     88  H   UNL     1      -0.080  -0.143  -1.964  0.00  0.00    +0.059 HD
ENDROOT
BRANCH  32  30
ATOM     29  C   UNL     1       2.221   0.199  -0.857  0.00  0.00    +0.234 C 
ATOM     30  N   UNL     1       1.033   0.197  -0.220  0.00  0.00    -0.302 N 
ATOM     31  H   UNL     1       0.968   0.543   0.684  0.00  0.00    +0.150 HD
ATOM     89  O   UNL     1       2.286  -0.144  -2.018  0.00  0.00    -0.274 OA
BRANCH  29  17
ATOM     17  C   UNL     1       3.467   0.628  -0.127  0.00  0.00    +0.102 C 
ATOM     18  H   UNL     1       3.445   0.237   0.890  0.00  0.00    +0.060 HD
BRANCH  17  16
ATOM     14  C   UNL     1       5.796  -0.088  -0.150  0.00  0.00    +0.234 C 
ATOM     15  O   UNL     1       5.856   0.164   1.034  0.00  0.00    -0.274 OA
ATOM     16  N   UNL     1       4.646   0.109  -0.825  0.00  0.00    -0.302 N 
ATOM     90  H   UNL     1       4.598  -0.093  -1.772  0.00  0.00    +0.150 HD
BRANCH  14  13
ATOM     13  C   UNL     1       7.008  -0.623  -0.869  0.00  0.00    +0.097 C 
ATOM     95  H   UNL     1       7.287   0.061  -1.670  0.00  0.00    +0.059 HD
BRANCH  13  91
ATOM     91  C   UNL     1       6.686  -1.997  -1.460  0.00  0.00    -0.038 C 
ATOM     92  H   UNL     1       6.408  -2.681  -0.658  0.00  0.00    +0.025 HD
ATOM     93  H   UNL     1       7.563  -2.384  -1.979  0.00  0.00    +0.025 HD
ATOM     94  H   UNL     1       5.858  -1.905  -2.163  0.00  0.00    +0.025 HD
ENDBRANCH  13  91
BRANCH  13  11
ATOM     10  C   UNL     1       9.392  -0.709  -0.370  0.00  0.00    +0.266 C 
ATOM     11  N   UNL     1       8.121  -0.747   0.076  0.00  0.00    -0.299 N 
ATOM     12  H   UNL     1       7.943  -0.855   1.024  0.00  0.00    +0.150 HD
ATOM     96  O   UNL     1       9.615  -0.573  -1.557  0.00  0.00    -0.268 OA
BRANCH  10   9
ATOM      1  C   UNL     1      11.907  -0.815   0.280  0.00  0.00    +0.012 A 
ATOM      2  C   UNL     1      12.509  -0.962   1.483  0.00  0.00    +0.135 A 
ATOM      3  O   UNL     1      11.530  -1.064   2.392  0.00  0.00    -0.359 OA
ATOM      4  N   UNL     1      10.435  -0.995   1.884  0.00  0.00    -0.073 NA
ATOM      9  C   UNL     1      10.518  -0.834   0.587  0.00  0.00    +0.168 A 
ATOM     97  H   UNL     1      12.373  -0.703  -0.688  0.00  0.00    +0.068 HD
BRANCH   2   5
ATOM      5  C   UNL     1      13.992  -1.005   1.748  0.00  0.00    -0.004 C 
ATOM      6  H   UNL     1      14.187  -1.628   2.621  0.00  0.00    +0.031 HD
ATOM      7  H   UNL     1      14.357   0.005   1.934  0.00  0.00    +0.031 HD
ATOM      8  H   UNL     1      14.504  -1.423   0.882  0.00  0.00    +0.031 HD
ENDBRANCH   2   5
ENDBRANCH  10   9
ENDBRANCH  13  11
ENDBRANCH  14  13
ENDBRANCH  17  16
BRANCH  17  19
ATOM     19  C   UNL     1       3.533   2.157  -0.083  0.00  0.00    -0.020 C 
ATOM     28  H   UNL     1       3.479   2.551  -1.098  0.00  0.00    +0.032 HD
BRANCH  19  20
ATOM     20  C   UNL     1       2.358   2.694   0.736  0.00  0.00    -0.061 C 
ATOM     21  H   UNL     1       2.338   2.203   1.708  0.00  0.00    +0.023 HD
ATOM     22  H   UNL     1       2.473   3.769   0.874  0.00  0.00    +0.023 HD
ATOM     23  H   UNL     1       1.425   2.494   0.208  0.00  0.00    +0.023 HD
ENDBRANCH  19  20
BRANCH  19  24
ATOM     24  C   UNL     1       4.848   2.592   0.565  0.00  0.00    -0.061 C 
ATOM     25  H   UNL     1       4.902   2.198   1.579  0.00  0.00    +0.023 HD
ATOM     26  H   UNL     1       4.895   3.681   0.595  0.00  0.00    +0.023 HD
ATOM     27  H   UNL     1       5.685   2.209  -0.019  0.00  0.00    +0.023 HD
ENDBRANCH  19  24
ENDBRANCH  17  19
ENDBRANCH  29  17
ENDBRANCH  32  30
BRANCH  32  33
ATOM     33  C   UNL     1      -1.384   0.365  -0.353  0.00  0.00    +0.234 C 
ATOM     34  O   UNL     1      -1.349   0.900   0.735  0.00  0.00    -0.274 OA
ATOM     35  N   UNL     1      -2.519   0.387  -1.079  0.00  0.00    -0.307 N 
ATOM     74  H   UNL     1      -2.567  -0.094  -1.919  0.00  0.00    +0.149 HD
BRANCH  35  36
ATOM     36  C   UNL     1      -3.681   1.139  -0.598  0.00  0.00    +0.043 C 
ATOM     37  H   UNL     1      -3.697   1.126   0.492  0.00  0.00    +0.054 HD
BRANCH  36  53
ATOM     53  C   UNL     1      -4.943   0.505  -1.126  0.00  0.00    -0.057 C 
ATOM     54  C   UNL     1      -5.858   0.040  -0.279  0.00  0.00    +0.020 C 
ATOM     55  H   UNL     1      -5.697   0.116   0.786  0.00  0.00    +0.069 HD
ATOM     73  H   UNL     1      -5.104   0.428  -2.191  0.00  0.00    +0.059 HD
BRANCH  54  56
ATOM     56  C   UNL     1      -7.088  -0.578  -0.794  0.00  0.00    +0.332 C 
ATOM     72  O   UNL     1      -7.269  -0.665  -1.992  0.00  0.00    -0.246 OA
BRANCH  56  57
ATOM     57  O   UNL     1      -8.015  -1.050   0.064  0.00  0.00    -0.457 OA
BRANCH  57  58
ATOM     58  C   UNL     1      -9.205  -1.647  -0.515  0.00  0.00    +0.118 C 
ATOM     70  H   UNL     1      -9.722  -0.908  -1.127  0.00  0.00    +0.075 HD
ATOM     71  H   UNL     1      -8.920  -2.498  -1.134  0.00  0.00    +0.075 HD
BRANCH  58  59
ATOM     59  C   UNL     1     -10.120  -2.114   0.588  0.00  0.00    -0.010 A 
ATOM     60  C   UNL     1     -11.079  -1.259   1.099  0.00  0.00    -0.055 A 
ATOM     61  C   UNL     1     -11.918  -1.686   2.110  0.00  0.00    -0.061 A 
ATOM     62  C   UNL     1     -11.795  -2.967   2.615  0.00  0.00    -0.062 A 
ATOM     63  H   UNL     1     -12.451  -3.302   3.406  0.00  0.00    +0.062 HD
ATOM     64  C   UNL     1     -10.833  -3.820   2.109  0.00  0.00    -0.061 A 
ATOM     65  H   UNL     1     -10.736  -4.821   2.503  0.00  0.00    +0.062 HD
ATOM     66  H   UNL     1     -12.670  -1.020   2.506  0.00  0.00    +0.062 HD
ATOM     67  H   UNL     1     -11.175  -0.258   0.704  0.00  0.00    +0.062 HD
ATOM     68  C   UNL     1      -9.993  -3.393   1.097  0.00  0.00    -0.055 A 
ATOM     69  H   UNL     1      -9.241  -4.059   0.701  0.00  0.00    +0.062 HD
ENDBRANCH  58  59
ENDBRANCH  57  58
ENDBRANCH  56  57
ENDBRANCH  54  56
ENDBRANCH  36  53
BRANCH  36  38
ATOM     38  C   UNL     1      -3.593   2.585  -1.090  0.00  0.00    -0.020 C 
ATOM     51  H   UNL     1      -2.642   3.017  -0.778  0.00  0.00    +0.029 HD
ATOM     52  H   UNL     1      -3.660   2.603  -2.178  0.00  0.00    +0.029 HD
BRANCH  38  39
ATOM     39  C   UNL     1      -4.743   3.398  -0.494  0.00  0.00    +0.039 C 
ATOM     40  C   UNL     1      -4.578   3.529   1.004  0.00  0.00    +0.216 C 
ATOM     41  O   UNL     1      -4.833   2.658   1.810  0.00  0.00    -0.276 OA
ATOM     42  N   UNL     1      -4.109   4.750   1.313  0.00  0.00    -0.315 N 
ATOM     43  H   UNL     1      -3.933   5.056   2.216  0.00  0.00    +0.149 HD
ATOM     44  C   UNL     1      -3.898   5.560   0.107  0.00  0.00    +0.012 C 
ATOM     45  H   UNL     1      -4.274   6.571   0.262  0.00  0.00    +0.046 HD
ATOM     46  H   UNL     1      -2.838   5.586  -0.149  0.00  0.00    +0.046 HD
ATOM     47  H   UNL     1      -5.701   2.935  -0.733  0.00  0.00    +0.040 HD
ATOM     48  C   UNL     1      -4.700   4.855  -1.009  0.00  0.00    -0.026 C 
ATOM     49  H   UNL     1      -5.705   5.270  -1.090  0.00  0.00    +0.029 HD
ATOM     50  H   UNL     1      -4.177   4.916  -1.963  0.00  0.00    +0.029 HD
ENDBRANCH  38  39
ENDBRANCH  36  38
ENDBRANCH  35  36
ENDBRANCH  32  33
BRANCH  32  75
ATOM     75  C   UNL     1      -0.267  -1.831  -0.638  0.00  0.00    -0.024 C 
ATOM     76  H   UNL     1      -0.381  -2.012   0.431  0.00  0.00    +0.029 HD
ATOM     77  H   UNL     1       0.635  -2.326  -0.997  0.00  0.00    +0.029 HD
BRANCH  75  78
ATOM     78  C   UNL     1      -1.484  -2.386  -1.381  0.00  0.00    -0.045 C 
ATOM     83  H   UNL     1      -2.375  -1.832  -1.086  0.00  0.00    +0.030 HD
BRANCH  78  84
ATOM     84  C   UNL     1      -1.270  -2.243  -2.889  0.00  0.00    -0.063 C 
ATOM     85  H   UNL     1      -1.072  -1.198  -3.131  0.00  0.00    +0.023 HD
ATOM     86  H   UNL     1      -0.420  -2.853  -3.195  0.00  0.00    +0.023 HD
ATOM     87  H   UNL     1      -2.164  -2.575  -3.417  0.00  0.00    +0.023 HD
ENDBRANCH  78  84
BRANCH  78  79
ATOM     79  C   UNL     1      -1.665  -3.865  -1.030  0.00  0.00    -0.063 C 
ATOM     80  H   UNL     1      -1.817  -3.967   0.044  0.00  0.00    +0.023 HD
ATOM     81  H   UNL     1      -0.774  -4.420  -1.325  0.00  0.00    +0.023 HD
ATOM     82  H   UNL     1      -2.531  -4.260  -1.560  0.00  0.00    +0.023 HD
ENDBRANCH  78  79
ENDBRANCH  75  78
ENDBRANCH  32  75
TORSDOF 24
